82
C  -5.91225400    1.72027500    0.42367100 
C  -5.16036600    0.58501300    0.55528000 
C  -3.92689400    2.00908800   -0.52113000 
N  -3.92614400    0.77607500   -0.03806500 
C  -4.78954400   -4.23395200   -1.39857000 
C  -4.21023300   -3.41629100   -0.46717000 
C  -3.61886000   -2.64799600   -2.41141100 
N  -3.48211600   -2.43325700   -1.11206300 
N  -1.25959000    1.15752500   -3.81522100 
C   2.10567000    3.95750900   -1.71156200 
N   1.99816500    2.73556300   -1.07154000 
C   3.38459400    4.12288800   -2.17038500 
C   3.19327300    2.16586400   -1.14695500 
C   0.26464800    4.69595000    2.89902900 
C   0.62061400    4.20373500    1.67511500 
C  -0.64759500    2.69434600    2.59812300 
N   0.04630300    2.95600400    1.49404400 
C  -2.85421300   -1.01458800    2.80069900 
O  -1.95978400   -0.14375100    2.99764700 
O  -3.12137500   -1.53655100    1.66729300 
Zn -2.41040400   -0.81117200   -0.18696900 
Zn  0.32913000    1.65887200   -0.17034400 
C  -1.34647400    0.92463500   -2.47628000 
O  -1.79448700   -0.20613500   -2.10605700 
O  -0.98095900    1.87849400   -1.68921200 
O  -0.67545200   -0.05123700    0.82068000 
C   6.07743500   -1.73898800    0.14527200 
C   5.47549900   -2.76339200   -0.58748600 
C   5.32889500   -0.90366800    0.97464500 
C   4.10057600   -2.93381100   -0.50371900 
C   3.95332000   -1.08071300    1.06160200 
C   3.32224800   -2.09042900    0.30909000 
O  -0.34562000   -2.16387500   -0.12081600 
O   1.47349900   -0.02642200   -0.18280800 
C  -0.02770200   -3.30964100   -0.93868500 
H   0.43163500   -4.09714100   -0.34210100 
H  -0.98562300   -3.64649800   -1.33583900 
H   0.63890500   -3.03027500   -1.75584600 
O   0.79944100   -1.24160000    2.21587700 
P   0.74228800   -1.14678200    0.59171300 
O   1.99287400   -2.34173500    0.35656700 
C   1.30098100   -2.35946900    2.96799100 
H   0.86585900   -3.29798900    2.61746400 
H   2.38988200   -2.42078300    2.91926200 
H   0.98765600   -2.17498900    3.99671800 
N   7.52059800   -1.52792400    0.03499100 
O   8.00823000   -0.57545200    0.64793100 
O   8.16162000   -2.30649000   -0.67189300 
C  -3.68915300   -1.47386300    3.98350500 
H  -4.70811800   -1.08463400    3.88118800 
H  -3.75940900   -2.56470500    3.99290600 
H  -3.26482600   -1.11701300    4.92234100 
C  -0.80181300    2.40088600   -4.40943900 
H   0.02858600    2.80236600   -3.82714100 
H  -0.45477400    2.20349500   -5.42635300 
H  -1.59263500    3.16087200   -4.45439600 
H  -5.40338500   -0.34876200    1.03711300 
H  -3.09922300    2.47466300   -1.03737500 
H  -4.25379400   -3.44351500    0.61003800 
H  -3.16602400   -2.04843500   -3.18523100 
H  -1.61844300    0.42794400   -4.41052900 
H   3.86181000    4.92525200   -2.71007700 
H   3.43901700    1.18783000   -0.76007100 
H   1.25365400    4.64954000    0.92446200 
H  -1.21311300    1.79520300    2.80968800 
H   6.08891200   -3.39948000   -1.21371500 
H   5.83562400   -0.13471900    1.54489400 
H   3.60350900   -3.71589300   -1.06724800 
H   3.36560300   -0.43801200    1.70530300 
N  -4.40252900   -3.73086500   -2.62686800 
H  -4.66064600   -4.10246800   -3.52915300 
N  -0.53826600    3.72568500    3.46453100 
H  -0.96043100    3.75899500    4.38120600 
N   4.05754800    2.97596500   -1.80138200 
H   5.02807800    2.76772400   -1.98804300 
N  -5.11146700    2.61416400   -0.26067700 
H  -5.36185600    3.55555100   -0.52443400 
H  -5.42299600   -5.10160900   -1.30584100 
H   0.50533200    5.61699300    3.40513500 
H   1.26295800    4.62562600   -1.80699300 
H  -6.91184900    1.96824000    0.74311000 
H  -1.08329400   -0.08744100    1.76994300