177 
C 5.010974 -4.377540 -5.014148 
C 4.587123 -3.072487 -4.755478 
C 3.666216 -2.833166 -3.732746 
C 3.176682 -3.901863 -2.977966 
C 3.590003 -5.218405 -3.225857 
C 4.514421 -5.438554 -4.256315 
C 3.068417 -6.370412 -2.396127 
O 3.782999 0.095650 -0.273959 
C 2.778552 -0.094776 0.446577 
C 3.000121 0.063145 1.979085 
O 3.944016 0.837216 2.315970 
C 1.476829 -0.307336 -0.139048 
C 0.311367 -0.855922 0.567640 
C -0.853632 -1.127745 -0.041435 
C -2.158274 -1.249283 0.660985 
O -3.160342 -1.249563 -0.122987 
O -2.227634 -1.279667 1.932503 
O 2.269890 -0.588034 2.775932 
O 3.341736 0.587490 -3.057059 
O 1.949298 4.040585 0.644424 
C 1.376174 4.882949 1.340223 
N 0.586026 5.859182 0.819618 
C 1.540027 4.897225 2.857325 
H 0.883013 5.634438 3.331136 
C 1.272388 3.519325 3.465578 
O -0.106977 3.248213 3.370274 
O -0.465101 0.456397 3.569154 
N 5.971569 2.065785 0.822939 
C 6.719977 1.655126 -0.207553 
N 6.436433 0.516293 -0.829324 
C 7.241247 -0.108570 -1.884065 
C 7.000489 0.466532 -3.290103 
C 7.811634 -0.285226 -4.354159 
N 7.800526 2.385731 -0.566990 
N -5.493484 -2.117739 0.603341 
C -5.798070 -2.266255 1.877515 
N -7.014062 -2.740450 2.252704 
C -8.029290 -3.137257 1.273471 
C -9.394718 -3.349090 1.925788 
C -10.460333 -3.721713 0.888807 
N -4.900963 -1.916198 2.817923 
N -3.199597 -4.139392 -1.958096 
C -4.244007 -3.340226 -2.286168 
O -5.393351 -3.530590 -1.867750 
C -3.323044 -5.237895 -1.021778 
C -2.698707 -4.998273 0.361604 
C -1.160220 -4.923393 0.424616 
C -0.487227 -6.227765 -0.028942 
C -3.893199 -2.175049 -3.186862 
C -5.038230 -1.762614 -4.117752 
C -4.723419 -0.490525 -4.908619 
C -0.712759 -4.552816 1.847074 
N 3.126455 -0.820618 5.389514 
C 3.553280 0.341257 5.867891 
N 3.950475 1.304273 5.027123 
C 2.919138 -2.031908 6.185358 
C 3.195477 -3.292380 5.359880 
C 3.012444 -4.567936 6.189275 
N 3.645930 0.550174 7.203362 
H -4.827998 8.372449 -2.482008 
H -5.906487 9.462931 -1.631810 
H -2.927720 9.042293 -0.972805 
H 0.347918 -0.892145 1.644593 
H 3.478393 0.423619 -2.105889 
H 0.398833 0.049726 3.393473 
C 0.301299 5.988848 -0.601719 
N 0.185887 2.054323 -0.681296 
C -0.846170 2.357714 0.365865 
C -2.208778 2.237222 -0.338432 
C -1.884951 2.546547 -1.804608 
C -0.500148 1.885549 -1.980608 
C 0.328404 2.446456 -3.131808 
N -0.259176 2.310674 -4.343547 
C 0.329762 2.789086 -5.580219 
O 1.425224 2.983106 -2.953719 
H -3.663108 10.469824 -1.701793 
H -6.600420 6.523194 -2.014939 
C -4.348185 6.615972 -0.350671 
C -5.460353 7.659359 -0.540278 
C -5.044258 8.798403 -1.491485 
C -3.848484 9.633108 -1.020865 
C -6.751587 6.989993 -1.033721 
H 0.887692 2.800572 -0.731256 
H -4.395775 -5.407649 -0.910762 
H 2.974516 -7.283442 -2.991834 
H 7.513740 -1.337927 -4.401521 
H 3.206465 -5.454749 5.580394 
H -10.196162 -4.642620 0.358610 
H -2.988679 -2.400709 -3.766985 
H -5.261626 -2.583130 -4.810533 
H 0.972656 5.325375 -1.147694 
H 0.567134 1.958825 -6.253345 
H 1.251113 3.313814 -5.328393 
H -5.668232 8.108670 0.442754 
H -4.679041 5.807714 0.310759 
H -7.086049 6.208369 -0.343085 
H -7.564180 7.717061 -1.135109 
H -2.282810 -3.880931 -2.289569 
H -0.638596 0.812476 -2.160168 
H -2.633446 2.152400 -2.498729 
H -1.803220 3.626870 -1.974532 
H -2.609998 1.224015 -0.255140 
H -2.947415 2.924925 0.082034 
H -0.739856 1.667399 1.203123 
H -0.683343 3.361255 0.756886 
H 3.699932 -4.593823 7.041804 
H 1.991652 -4.650152 6.577789 
H 2.526680 -3.305629 4.491059 
H 4.218278 -3.238664 4.969447 
H 3.598679 -2.005360 7.045040 
H 1.890859 -2.059223 6.573091 
H 2.841930 -0.815686 4.384469 
H 3.099271 0.003257 7.847517 
H 4.089766 1.382189 7.555832 
H 3.969785 1.124046 3.996287 
H 3.933882 2.260946 5.344601 
H 7.648669 0.150453 -5.343513 
H 8.887154 -0.248640 -4.146472 
H 5.926206 0.421550 -3.504971 
H 7.267716 1.533106 -3.309495 
H 8.299844 -0.042743 -1.602986 
H 6.982475 -1.170906 -1.876416 
H 5.501659 0.145111 -0.626076 
H 8.095091 3.170405 -0.010458 
H 8.246185 2.243006 -1.457472 
H 5.168151 1.513723 1.174983 
H 5.986321 3.042889 1.069503 
H 3.742894 -6.597642 -1.560708 
H 2.087737 -6.142001 -1.968809 
H 4.842753 -6.452813 -4.470917 
H 5.720156 -4.573123 -5.813910 
H 4.957985 -2.246738 -5.356321 
H 3.325603 -1.819168 -3.538586 
H 2.455618 -3.712130 -2.185534 
H 0.468729 7.018164 -0.933127 
H -1.106241 -0.089838 3.065621 
H -0.736165 5.714532 -0.825518 
H 2.946412 1.472525 -3.094602 
H 0.092648 6.460335 1.462298 
H -0.929382 -1.111439 -1.126439 
H -4.026426 10.052292 -0.023719 
H -3.446210 7.052910 0.089919 
H -4.069434 6.165736 -1.312322 
H 1.567251 -0.594531 -1.191542 
H 0.979918 0.900125 -0.334641 
H -11.430338 -3.879677 1.367692 
H -10.581641 -2.929201 0.143095 
H -9.321550 -4.143347 2.681321 
H -9.685233 -2.433635 2.454735 
H -8.098998 -2.338017 0.528282 
H -7.722813 -4.050063 0.741862 
H -7.082530 -3.139184 3.178308 
H -5.928412 -2.672506 -0.128363 
H -4.548482 -1.694434 0.354857 
H -5.215356 -1.702968 3.750915 
H -3.943204 -1.630633 2.532699 
H -3.637264 -1.349992 -2.508408 
H -5.939548 -1.622123 -3.513504 
H -4.536357 0.355959 -4.236233 
H -5.554600 -0.213787 -5.564493 
H -3.835365 -0.619299 -5.539218 
H -2.902436 -6.141438 -1.479621 
H -3.031092 -5.819518 1.013580 
H -3.120836 -4.076531 0.776262 
H -0.827188 -4.112655 -0.240325 
H 0.378740 -4.474522 1.905569 
H -1.028363 -5.322195 2.563766 
H -1.139660 -3.595277 2.159345 
H 0.602565 -6.147405 0.045764 
H -0.724861 -6.490442 -1.065262 
H -0.797472 -7.068894 0.603495 
H 2.575837 5.191711 3.067556 
H -0.258390 2.286236 3.499547 
H 1.612959 3.532124 4.517971 
H 1.885186 2.782844 2.926651 
H -0.348678 3.478703 -6.091936 
H -1.152530 1.842916 -4.389782 