77
O -2.571610 -0.926551 -1.028926 
C -1.480830 -0.289020 -0.730236 
C -1.702977 1.154439 -0.222294 
O -2.763734 1.335958 0.471555 
C -0.226118 -0.890230 -0.819461 
C 1.090409 -0.372039 -0.503004 
C 2.235241 -1.089110 -0.657982 
C 3.639916 -0.625907 -0.419110 
O 4.522734 -1.538854 -0.505183 
O 3.886325 0.598839 -0.166711 
O -0.879915 2.054763 -0.522995 
O -2.636763 -3.529524 -1.672064 
O 2.005136 2.882243 -0.138193 
N -5.251486 -0.042913 0.348676 
C -5.872560 -0.671392 -0.662663 
N -5.175880 -1.047447 -1.724625 
C -5.694003 -1.851804 -2.826681 
N -7.208587 -0.912146 -0.579173 
N 7.109351 -1.054124 -0.487985 
C 7.507842 0.192775 -0.273544 
N 8.828692 0.539491 -0.236106 
C 9.975400 -0.356295 -0.415996 
N 6.582900 1.137597 -0.067238 
N -1.443532 4.736222 -0.030947 
C -2.281135 4.936032 0.977732 
N -2.962539 3.902517 1.489371 
C -0.808889 5.812102 -0.786417 
N -2.496989 6.190461 1.458273 
N -0.111319 -2.553637 1.707157 
C -1.249585 -1.839461 2.393089 
C -2.471290 -2.727410 2.069432 
C -1.889290 -4.094776 1.608774 
C -0.392377 -4.032529 1.942164 
C 0.529357 -4.981251 1.188207 
H 0.261189 -6.007986 1.450710 
H 2.668845 2.170467 -0.224409 
H -2.041230 -3.687709 -2.414954 
H 0.813463 -2.247181 2.021500 
H -6.400956 -2.609814 -2.472838 
H 10.871770 0.168251 -0.083822 
H -0.243679 -4.159658 3.021393 
H -2.358376 -4.945740 2.107612 
H -2.028253 -4.210992 0.526979 
H -3.108502 -2.821704 2.951674 
H -3.055664 -2.272491 1.268091 
H -1.016446 -1.807167 3.459523 
H -1.319872 -0.826385 1.997528 
H -1.551669 6.532385 -1.143931 
H -0.043732 6.332343 -0.197159 
H -1.200870 3.737690 -0.238471 
H -1.826853 6.921137 1.283597 
H -3.174326 6.345301 2.186219 
H -2.864951 2.936026 1.083384 
H -3.360326 3.995223 2.410661 
H -6.171897 -1.234206 -3.594010 
H -4.849259 -2.389203 -3.258815 
H -4.151715 -0.865583 -1.655605 
H -7.668457 -1.454479 -1.291034 
H -7.671808 -0.844508 0.312268 
H -4.261298 0.268127 0.266728 
H -5.818880 0.456460 1.015634 
H 9.854670 -1.246898 0.206972 
H 10.113686 -0.662599 -1.460405 
H 9.016494 1.527459 -0.313725 
H 7.763004 -1.725674 -0.858072 
H 6.044382 -1.266054 -0.480591 
H 6.861594 2.020009 0.332222 
H 5.546870 0.911702 -0.104381 
H -0.310118 5.365292 -1.645981 
H 1.236027 2.545212 -0.618301 
H -0.249259 -1.874458 -1.298842 
H -0.158361 -2.266856 0.697287 
H 1.161270 0.633356 -0.100094 
H 2.182627 -2.106580 -1.047014 
H -2.533812 -2.563870 -1.469062 
H 0.418311 -4.870764 0.105346 
H 1.580051 -4.829763 1.452468