77
O -2.893947 -0.931106 -1.522110 
C -1.995949 -0.276804 -0.957093 
C -2.449612 0.950266 -0.135341 
O -3.472277 0.800368 0.599115 
C -0.607875 -0.674335 -1.109851 
C 0.491442 -0.149983 -0.511911 
C 1.823308 -0.807538 -0.620727 
C 3.124532 0.027491 -0.701174 
O 4.159158 -0.677902 -0.867630 
O 3.093305 1.286662 -0.587527 
O -1.806746 2.011492 -0.319027 
O -3.029429 -2.890607 -3.555724 
O 0.928929 3.038400 0.246050 
N -5.693186 -0.960603 0.735350 
C -6.242436 -1.690637 -0.244650 
N -5.593389 -1.842972 -1.391903 
C -6.026493 -2.685798 -2.505774 
N -7.462677 -2.258179 -0.058970 
N 6.600724 0.374305 -1.117722 
C 6.732302 1.683915 -0.947869 
N 7.946026 2.298465 -0.997439 
C 9.241441 1.648838 -1.213633 
N 5.639386 2.419490 -0.709409 
N -2.857423 4.350703 0.595749 
C -3.615384 4.296028 1.679093 
N -4.062092 3.108410 2.118375 
C -2.493185 5.585201 -0.082529 
N -3.993142 5.430229 2.316195 
N 2.877775 -3.285562 1.245667 
C 3.788054 -3.026940 2.366338 
C 2.939618 -3.414732 3.593824 
C 1.936196 -4.468965 3.046842 
C 2.253610 -4.586815 1.536524 
C 1.038004 -4.862895 0.654877 
H 0.573127 -5.816896 0.924334 
H 1.678480 2.513640 -0.094726 
H -2.747167 -2.474911 -4.379712 
H 3.368992 -3.271771 0.354534 
H -6.313109 -3.684094 -2.155283 
H 10.025710 2.366510 -0.972310 
H 2.981007 -5.409640 1.399965 
H 2.027176 -5.437945 3.545606 
H 0.904943 -4.127940 3.185988 
H 3.559826 -3.801946 4.406670 
H 2.404981 -2.541719 3.978515 
H 4.694882 -3.656712 2.325420 
H 4.109929 -1.981297 2.368952 
H -3.372743 6.213832 -0.254882 
H -1.737747 6.154862 0.472705 
H -2.445643 3.448333 0.255371 
H -3.500839 6.294435 2.161477 
H -4.660629 5.397461 3.068822 
H -3.833540 2.248006 1.580337 
H -4.312347 3.013104 3.090148 
H -6.864115 -2.232881 -3.047628 
H -5.165540 -2.802745 -3.169429 
H -4.680349 -1.379951 -1.467271 
H -7.815830 -2.904437 -0.746277 
H -7.836430 -2.341785 0.872783 
H -4.811582 -0.434132 0.596757 
H -6.248445 -0.721107 1.540860 
H 9.349179 0.792434 -0.542076 
H 9.377458 1.316348 -2.250001 
H 7.922568 3.302532 -1.089197 
H 7.366737 -0.163117 -1.490536 
H 5.631571 -0.065928 -1.015057 
H 5.743572 3.346540 -0.327900 
H 4.685078 1.979408 -0.673223 
H -2.062221 5.321620 -1.048365 
H 0.176286 2.756755 -0.291781 
H -0.493754 -1.556872 -1.738726 
H 1.951835 -1.445905 0.276895 
H 0.413298 0.734422 0.116567 
H 1.839430 -1.517495 -1.454615 
H -2.765832 -2.260197 -2.860277 
H 0.295232 -4.066882 0.772213 
H 1.315157 -4.918175 -0.403741