46
 H         -4.259404   -1.833529   -0.825515
 H         -6.888264    1.814384    4.327321
 H         -7.523640    0.656402    2.310330
 H         -6.113029   -1.487498   -2.251567
 C         -6.904702    1.543424    2.142226
 H         -5.425940   -0.933399    0.191083
 O         -5.778031    1.140799    1.326606
 C         -3.501626    0.509845    1.528564
 C         -4.558605    1.515261    1.966432
 C         -6.714298    0.524440   -1.736018
 C          4.787087    0.763517    4.018784
 C          1.270437    0.366278    2.273221
 N          0.402002    1.189575    1.396185
 C          3.455878    0.123041    3.599990
 H         -7.267706    0.682650   -2.665077
 H         -7.425742    0.216131   -0.964971
 H          5.359899    0.090382    4.662968
 C          2.597004    1.018112    2.691654
 C         -4.880529    1.529945    3.463915
 S         -3.506669    0.388384   -0.317390
 H          0.216846    2.073649    1.870955
 C         -5.636964   -0.546470   -1.948942
 C         -4.808397   -0.896010   -0.706963
 C         -6.309566    2.104512    3.447968
 H         -6.276083    3.197547    3.417994
 H         -7.497013    2.284081    1.596526
 H         -4.180182    2.132722    4.046521
 H         -2.485457    0.827447    1.783981
 H         -4.255547    2.522213    1.637109
 H         -6.285626    1.482807   -1.430453
 H          5.406802    0.998215    3.146660
 H          4.623655    1.695165    4.571204
 H          0.687057    0.105942    3.164730
 H          0.945396    1.457107    0.574544
 H          2.878665   -0.135986    4.497787
 H          3.655229   -0.825388    3.083424
 H          2.385282    1.966613    3.206418
 H          3.168507    1.279209    1.789221
 H         -4.873599    0.508871    3.862057
 H         -4.974566   -0.273156   -2.779520
 H          1.469548   -0.576157    1.749044
 H         -1.787629   -0.582702   -1.669021
 C         -1.941445   -0.508372   -0.591427
 H         -1.995490   -1.500290   -0.138793
 H         -1.147086    0.082099   -0.116102
 H         -3.689858   -0.490524    1.927673
