29
 H         -6.146421    0.980616   -2.139724
 C         -5.902299   -0.046500   -1.857200
 C         -5.517824   -0.139400   -0.382241
 S         -4.013585    0.863093    0.030142
 C         -0.656030    0.075624    0.387862
 C         -4.586130    1.828874    1.493988
 C         -5.548143    2.965626    1.162619
 H         -5.826048    3.501143    2.077155
 H         -6.469979    2.593299    0.706200
 N          0.791160    0.035046    0.821315
 C          1.194364    1.131653    1.795193
 C          2.657752    1.011552    2.191032
 H          2.899336    1.817027    2.888819
 H         -5.320747   -1.174669   -0.091519
 H         -6.775593   -0.677672   -2.052534
 H         -6.326494    0.231700    0.252623
 H          1.396748    0.090317   -0.004537
 H         -3.667615    2.222898    1.941795
 H         -5.093197    3.677447    0.469095
 H          0.976591    2.075724    1.290697
 H          0.992157   -0.874564    1.250067
 H          3.325103    1.112865    1.329446
 H          2.869050    0.064341    2.697196
 H         -5.091622   -0.391232   -2.506469
 H          0.523478    1.033093    2.651528
 H         -0.840788   -0.745687   -0.303582
 H         -1.293888   -0.025950    1.263925
 H         -0.848112    1.028582   -0.102493
 H         -5.019968    1.130958    2.216613
