72
 C         -6.404495   -1.623849    2.217065
 C         -5.480531   -2.178473    3.103679
 C         -5.986090   -0.659645    1.297996
 C         -4.142163   -1.782956    3.068618
 C         -4.653830   -0.245447    1.257160
 C         -3.743954   -0.817796    2.144817
 O         -2.413476   -0.400617    2.065010
 C         -5.169803    3.598359   -0.568675
 C         -3.909108    3.623981    0.030225
 C         -5.361445    2.884351   -1.752531
 C         -2.839848    2.937178   -0.545853
 C         -4.303681    2.182415   -2.333507
 C         -3.051899    2.218590   -1.721560
 O         -1.966488    1.510739   -2.239152
 C         -3.687325   -4.047736   -2.418145
 C         -2.296247   -3.607941   -1.952484
 C         -2.290697   -2.178445   -1.390121
 C         -0.898969   -1.747514   -0.933817
 N         -0.911014   -0.351980   -0.369235
 C          6.829948    2.408110    1.210324
 C          5.436850    2.660301    1.793667
 C          4.407432    1.550376    1.538659
 S          3.878195    1.416875   -0.237688
 C          4.397778   -0.272378   -0.757660
 C          5.884562   -0.588175   -0.686446
 O          6.231812   -0.816456    0.680870
 C          6.305448   -1.888133   -1.386873
 H          3.854651   -1.032109   -0.185051
 C          7.617340   -2.241006   -0.656709
 H          8.481585   -1.857826   -1.206379
 C          7.477594   -1.522147    0.711329
 H         -0.184981   -1.749848   -1.762655
 H         -5.795650   -2.924710    3.826013
 H         -3.420617   -2.221526    3.754286
 H         -1.953010   -0.666533    2.872973
 H         -4.329178    0.530130    0.571179
 H         -6.700418   -0.212284    0.614078
 H         -3.750465    4.190500    0.942206
 H         -1.846324    2.979690   -0.110713
 H         -2.125241    1.312964   -3.172795
 H         -4.453262    1.617541   -3.250503
 H         -6.336447    2.868355   -2.228999
 H         -7.443215   -1.935063    2.247535
 H         -5.995746    4.141050   -0.121395
 H         -3.661741   -5.067871   -2.810129
 H         -4.408120   -4.024581   -1.594297
 H         -4.065480   -3.396048   -3.213065
 H         -1.588667   -3.673888   -2.789086
 H         -1.929890   -4.299763   -1.183300
 H         -2.652112   -1.479828   -2.156509
 H         -2.992179   -2.110837   -0.549253
 H         -0.509974   -2.404971   -0.150988
 H         -1.518288   -0.339482    0.475333
 H         -1.335648    0.288445   -1.070544
 H          7.510308    3.221377    1.480571
 H          7.248395    1.469590    1.583048
 H          6.795286    2.354085    0.117960
 H          5.043007    3.613925    1.420423
 H          3.499168    1.747983    2.116050
 H          4.068385   -0.328824   -1.800690
 H          6.461430    0.258400   -1.091494
 H          5.544913   -2.659242   -1.216465
 H          6.433662   -1.766192   -2.465876
 H          7.752156   -3.319586   -0.546714
 H          4.803460    0.577139    1.831613
 H          7.439841   -2.211550    1.559735
 H          8.305029   -0.819596    0.878109
 H          0.323652    1.171623    0.434685
 C          0.439490    0.181631   -0.004996
 H          0.911383   -0.489733    0.712599
 H          1.058716    0.259986   -0.896588
 H          5.514675    2.771740    2.883926
