46
 H         -3.599645   -1.578101   -1.179104
 H         -6.683223    2.500331    3.777578
 H         -7.056208    0.332424    2.817959
 H         -5.770625   -1.915793   -2.073775
 C         -6.894784    1.113386    2.069733
 H         -4.721387   -0.869145    0.001100
 O         -5.731079    0.747541    1.318194
 C         -3.615641    1.584966    0.579933
 C         -5.044857    1.946174    0.958335
 C         -6.667605    0.026444   -1.788024
 C          4.839162    1.198272    3.840287
 C          1.745258    0.944379    1.469901
 N          1.518439    0.340909    0.092146
 C          3.401631    1.370567    3.337948
 H         -7.432014   -0.136546   -2.553600
 H         -7.106854   -0.187765   -0.810398
 H          4.953333    1.643805    4.831469
 C          3.184144    0.758516    1.941247
 C         -5.176433    2.829196    2.208191
 S         -3.363956    0.815202   -1.075592
 H          2.175768    0.772037   -0.566273
 C         -5.450110   -0.865284   -2.052518
 C         -4.324986   -0.776653   -1.011061
 C         -6.606823    2.507075    2.687853
 H         -7.318545    3.248843    2.315137
 H         -7.773037    1.144013    1.411313
 H         -5.023304    3.890705    1.995404
 H         -3.016344    2.500624    0.529285
 H         -5.541449    2.430839    0.102335
 H         -6.394941    1.086118   -1.812169
 H          5.111008    0.140551    3.917136
 H          5.556946    1.684487    3.171788
 H          1.473485    1.999674    1.385194
 H          1.773656   -0.651634    0.124238
 H          3.147374    2.437421    3.306188
 H          2.705102    0.904825    4.046285
 H          3.873403    1.228308    1.226392
 H          3.429876   -0.311843    1.970687
 H         -4.436597    2.518751    2.955389
 H         -5.041696   -0.655467   -3.048922
 H          1.028691    0.454886    2.134362
 H          0.052634    0.014849   -1.424323
 C          0.109252    0.478890   -0.440646
 H         -0.578657   -0.014024    0.243177
 H         -0.132280    1.537823   -0.512548
 H         -3.200377    0.943676    1.365340
