132
 H          2.854472    2.050363   -2.058815
 H          5.671631   -2.313847   -4.390923
 H          3.494733   -3.046163   -3.439461
 H         -3.498293   -0.916256   -1.181244
 H         -6.448647    2.176766    4.393352
 C          5.017489   -1.594878   -3.908362
 C          3.794198   -2.003864   -3.372942
 C          5.389751   -0.253015   -3.823083
 C          2.944773   -1.087069   -2.753098
 C          4.554510    0.676468   -3.203667
 C          3.333831    0.253487   -2.669123
 O          2.483404    1.134440   -2.038463
 H         -6.885605    0.224872    3.068195
 H         -1.041968   -3.240674    3.060838
 H         -5.705976   -1.514191   -1.913953
 H          4.842425    1.721037   -3.129419
 H          1.126053   -0.817138    5.893437
 H          0.812498    3.306270   -0.830552
 H         -0.245746    1.153824    5.237136
 C         -6.799772    1.137938    2.471192
 H          0.666419   -3.028681    4.852818
 H         -4.614070   -0.459494    0.123023
 C         -0.527618    4.859622    0.508168
 O         -0.425003    3.796338    1.090707
 N          0.274060    5.258378   -0.543905
 C          1.020091    4.265639   -1.313659
 C          2.543986    4.430590   -1.251328
 O          3.279793    3.694656   -1.926468
 C          0.581750    4.164644   -2.783479
 C         -0.867320    3.768736   -2.968691
 O         -1.683300    3.742489   -2.076207
 O         -5.710015    0.961451    1.572560
 N          3.045284    5.390564   -0.454625
 C          4.473725    5.456225   -0.230527
 C          5.017053    4.237258    0.510635
 O          4.320508    3.368946    0.980559
 C         -3.695042    1.991864    0.803687
 C         -5.080856    2.230081    1.379775
 O          0.595864   -2.454282   -0.153719
 C         -6.769341    0.312643   -1.457335
 C          5.002143    0.915119    3.692999
 C          1.643467    0.794020    1.673121
 N          1.173485    0.262213    0.345736
 C          3.518914    1.096035    3.334962
 O         -2.537509   -1.193667    2.158656
 C          0.124628   -2.145464    4.518014
 H         -1.249681    5.639038    0.804842
 H         -7.574902    0.127884   -2.176318
 H         -7.113035   -0.002147   -0.468745
 H         -0.058029    6.071121   -1.049461
 C         -0.406008    0.193748    4.755820
 H          5.219073    1.343627    4.675935
 C         -0.850750   -2.277781    3.525481
 H          0.743333    5.113912   -3.317875
 C          3.114693    0.496607    1.972861
 C         -1.387694    0.074736    3.776718
 C         -5.110768    2.857532    2.782062
 H          2.400795    5.883627    0.148257
 H         -1.150867    3.523717   -4.013962
 S         -3.634386    1.468012   -0.954120
 C         -1.601893   -1.157623    3.140098
 C         -1.240332   -1.322064   -3.857172
 O         -1.437399   -0.916986   -2.723988
 H         -3.820432   -3.261416   -4.670340
 H         -3.883592   -1.823901   -3.646820
 H          4.717037    6.356790    0.343977
 H         -0.016003   -4.855891   -0.730529
 H         -0.401282   -0.973554   -4.486555
 H          5.003185    5.531950   -1.187408
 N         -1.992357   -2.289014   -4.464976
 C         -3.277904   -2.694530   -3.908583
 C         -3.213972   -3.560468   -2.653194
 O         -4.187978   -3.652897   -1.904180
 H          5.480799   -4.097767   -0.720802
 H         -0.729912   -6.333947   -0.048104
 H          3.172783   -3.295316   -0.252590
 H         -2.802760   -5.969639   -1.422866
 H         -0.343468   -6.266829   -1.767972
 N         -2.087406   -4.261408   -2.391634
 C         -2.112603   -5.140101   -1.225868
 C         -2.681724   -4.364181   -0.027795
 O         -2.124187   -3.371052    0.421842
 C         -0.710444   -5.677862   -0.922215
 H         -3.563824   -4.792445    0.472780
 H          1.785726    0.602464   -0.418443
 H         -1.822817   -2.457937   -5.447101
 H          6.123140    4.212876    0.596648
 H          1.901887   -2.884576    3.000439
 H          6.150518   -4.607397    3.496305
 H          3.846662   -3.813978    3.961919
 C         -5.501029   -0.437502   -1.859502
 H          1.995043   -1.400858   -2.329711
 H         -1.250975   -4.143318   -2.944362
 H          6.337681    0.076611   -4.237742
 C         -4.317114   -0.249941   -0.904649
 H          6.974017   -4.758712    1.157362
 C          5.966082   -4.410285    1.357559
 C          5.504570   -4.323946    2.671087
 C          5.126698   -4.043766    0.304086
 C          4.209605   -3.875800    2.938847
 C          3.832936   -3.593603    0.554910
 C          3.383670   -3.514022    1.874578
 O          2.092535   -3.060213    2.067595
 C         -6.480193    2.397257    3.323371
 H         -2.533069   -2.051149    1.691185
 H         -1.990727    0.926385    3.481480
 H         -7.240296    3.169188    3.171483
 H          1.217641    3.434360   -3.294110
 C          0.373194   -0.908190    5.117060
 H         -7.738219    1.269130    1.913272
 H         -4.999113    3.945401    2.763054
 H         -3.111368    2.916464    0.835746
 H         -5.674568    2.844380    0.682310
 H          0.938351   -2.865817    0.661784
 H         -0.367681   -2.596990   -0.139969
 H         -6.592104    1.391209   -1.420388
 H          5.282556   -0.143676    3.718233
 H          5.641322    1.414119    2.957612
 H          1.460948    1.871952    1.651250
 H          1.196396   -0.776801    0.301067
 H          3.284097    2.167583    3.327598
 H          2.893843    0.648037    4.118280
 H          3.747371    0.927316    1.188903
 H          3.283136   -0.586653    1.975178
 H         -4.295525    2.440915    3.384947
 H         -5.203706   -0.124505   -2.871655
 H          0.986170    0.363810    2.430571
 H         -0.441704    0.327517   -1.027579
 C         -0.243843    0.627226    0.000374
 H         -0.918469    0.089609    0.665052
 H         -0.385431    1.697270    0.133032
 H         -3.186076    1.244034    1.417925
