  132
 H     2.985208     1.771851    -2.222956
 H     5.783557    -2.923433    -3.774675
 H     3.460722    -3.445885    -3.049803
 H    -3.564390    -1.096100    -0.908358
 H    -6.898160     3.236527     3.702150
 C     5.120822    -2.128689    -3.447822
 C     3.815217    -2.418684    -3.042571
 C     5.559755    -0.804135    -3.436774
 C     2.953864    -1.404296    -2.621137
 C     4.710706     0.222662    -3.023836
 C     3.406856    -0.079763    -2.613385
 O     2.540325     0.895458    -2.190609
 H    -6.508997     0.953623     2.957758
 H    -0.881517    -2.805629     3.155158
 H    -5.565757    -1.392414    -2.004616
 H     5.051780     1.253994    -3.013828
 H     0.960655    -0.166826     6.028425
 H     1.013792     3.197538    -1.084769
 H    -0.752458     1.564632     5.513622
 C    -6.792070     1.662925     2.166564
 H     0.867852    -2.360843     4.875129
 H    -4.715290    -0.363555     0.240035
 C    -0.315133     4.938178     0.076990
 O    -0.399838     3.887107     0.687692
 N     0.557348     5.187094    -0.954471
 C     1.274139     4.110452    -1.629481
 C     2.802467     4.232619    -1.549335
 O     3.523554     3.438569    -2.166260
 C     0.859346     3.933400    -3.098202
 C    -0.577878     3.508648    -3.281788
 O    -1.366962     3.357576    -2.376006
 O    -5.898212     1.529410     1.059238
 N     3.317149     5.235995    -0.810309
 C     4.740428     5.265129    -0.548829
 C     5.197513     4.122864     0.353961
 O     4.441888     3.337976     0.874660
 C    -3.564116     2.064256     0.852463
 C    -4.970469     2.621665     1.014702
 O     0.257399    -2.914377    -0.919824
 C    -6.659273     0.437870    -1.654034
 C     4.943159     1.147854     3.853802
 C     1.586096     1.000670     1.740125
 N     1.091053     0.310361     0.522504
 C     3.484384     1.409786     3.423124
 O    -2.738514    -1.010843     2.399827
 C     0.151422    -1.584236     4.618159
 H    -0.923515     5.824366     0.329322
 H    -7.314392     0.278798    -2.516625
 H    -7.177425     0.088308    -0.758493
 H     0.401078     6.044061    -1.471133
 C    -0.764573     0.613094     4.990829
 H     5.180339     1.692251     4.773014
 C    -0.826593    -1.839902     3.652285
 H     1.028091     4.851094    -3.681752
 C     3.038431     0.667540     2.145832
 C    -1.747363     0.369827     4.035911
 C    -5.176238     3.399844     2.326826
 H     2.682251     5.746659    -0.212537
 H    -0.880501     3.343782    -4.337386
 S    -3.221279     1.252013    -0.762454
 C    -1.773783    -0.850490     3.349397
 C    -1.119555    -1.630017    -3.663212
 O    -1.702689    -0.926540    -2.849669
 H    -3.357087    -3.858094    -4.660034
 H    -3.667731    -2.282786    -3.920725
 H     5.014033     6.219190    -0.084785
 H    -0.314222    -5.316369    -0.181085
 H    -0.102529    -1.410905    -4.030442
 H     5.292805     5.194146    -1.492457
 N    -1.646403    -2.768090    -4.190044
 C    -3.014322    -3.157043    -3.893577
 C    -3.230974    -3.824153    -2.532985
 O    -4.344783    -3.840305    -2.016909
 H     6.108707    -3.865809     0.049534
 H    -1.358184    -6.482435     0.669771
 H     3.841719    -2.911943    -0.266332
 H    -3.263442    -5.839399    -0.865885
 H    -0.959167    -6.738861    -1.034230
 N    -2.169886    -4.472256    -1.970300
 C    -2.412160    -5.167082    -0.718448
 C    -2.809668    -4.209544     0.397056
 O    -2.273450    -3.125599     0.584006
 C    -1.178782    -5.976276    -0.282965
 H    -3.585762    -4.570738     1.096541
 H     1.650363     0.557703    -0.297883
 H    -1.128311    -3.253892    -4.907987
 H     6.295772     4.070778     0.505987
 H     1.497050    -2.692214     2.350163
 H     5.132027    -4.837891     4.123640
 H     2.858349    -3.914199     3.798840
 C    -5.338511    -0.326612    -1.870645
 H     1.946626    -1.630370    -2.282590
 H    -1.220289    -4.197836    -2.198557
 H     6.570667    -0.563100    -3.752351
 C    -4.275078    -0.283569    -0.753438
 H     6.771532    -4.829829     2.250689
 C     5.777056    -4.420144     2.108693
 C     4.857719    -4.423101     3.158499
 C     5.403025    -3.882074     0.874501
 C     3.575236    -3.898218     2.981149
 C     4.128493    -3.349055     0.684038
 C     3.220009    -3.363257     1.742257
 O     1.954401    -2.836880     1.508577
 C    -6.650403     3.111751     2.644970
 H    -2.621583    -1.844964     1.904329
 H    -2.502190     1.115016     3.810769
 H    -7.302337     3.772112     2.063271
 H     1.501341     3.174708    -3.560157
 C     0.200136    -0.353989     5.277804
 H    -7.803948     1.413881     1.831257
 H    -4.948792     4.463596     2.220145
 H    -2.819557     2.865315     0.908887
 H    -5.219004     3.259279     0.153047
 H     0.896300    -3.029771    -0.196016
 H    -0.585685    -2.725974    -0.475752
 H    -6.499583     1.513364    -1.543413
 H     5.121512     0.082650     4.037670
 H     5.640910     1.475027     3.076144
 H     1.483014     2.076607     1.565178
 H     1.181907    -0.699590     0.624253
 H     3.352292     2.487342     3.264254
 H     2.809274     1.135469     4.245059
 H     3.711985     0.929140     1.321590
 H     3.130512    -0.415531     2.298470
 H    -4.530183     2.993676     3.114952
 H    -4.871706    -0.001434    -2.808989
 H     0.902936     0.750408     2.557909
 H    -0.806781     0.184136    -1.056939
 C    -1.013120     0.682848    -0.120744
 H    -1.351041     0.108931     0.727684
 H    -0.788737     1.730209     0.007993
 H    -3.363320     1.334802     1.640359
